Circuit: * C:\users\pedro\Meus Documentos\UnB\6_Semestre\lab-eletronica\experimento4\circuito2.asc


Date: Mon Aug 30 15:43:53 2021
Total elapsed time: 0.036 seconds.

tnom = 27
temp = 27
method = trap
totiter = 0
traniter = 0
tranpoints = 0
accept = 0
rejected = 0
matrix size = 3
fillins = 0
solver = Normal

