Circuit: * C:\users\pedro\Meus Documentos\UnB\6_Semestre\lab-eletronica\experimento6\parte1.asc

.OP point found by inspection.
Heightened Def Con from 0.000879999 to 0.00088
Heightened Def Con from 0.096 to 0.096

Date: Thu Sep 23 17:46:48 2021
Total elapsed time: 24.307 seconds.

tnom = 27
temp = 27
method = modified trap
totiter = 14303390
traniter = 14303390
tranpoints = 3819773
accept = 2871591
rejected = 948184
matrix size = 15
fillins = 4
solver = Normal
Matrix Compiler1: 916 bytes object code size  0.2/0.1/[0.1]
Matrix Compiler2: 1.15 KB object code size  0.1/0.1/[0.1]

