Circuit: * C:\users\pedro\Meus Documentos\UnB\6_Semestre\lab-eletronica\parte3.asc

Direct Newton iteration for .op point succeeded.

Date: Mon Aug 30 15:52:09 2021
Total elapsed time: 0.041 seconds.

tnom = 27
temp = 27
method = trap
totiter = 12
traniter = 0
tranpoints = 0
accept = 0
rejected = 0
matrix size = 38
fillins = 28
solver = Normal
Matrix Compiler1: 2.89 KB object code size
Matrix Compiler2: 3.52 KB object code size
